120
k15052
C       2.008478    4.592254   -0.599126
C       2.184427    5.969912   -0.767684
N       3.156006    6.672026   -1.479982
C       4.277091    6.209919   -2.133122
H       4.467833    5.279778   -2.148555
C       5.102503    7.077463   -2.749567
H       5.872183    6.755482   -3.203113
C       4.829157    8.472382   -2.724361
H       5.406148    9.076809   -3.177392
C       3.752660    8.938902   -2.059903
H       3.584456    9.873982   -2.038812
C       2.866296    8.053137   -1.391845
C       1.746860    8.223891   -0.618674
H       1.339224    9.053991   -0.399532
C       1.305570    6.942900   -0.204567
C       2.817961    3.583489   -1.209055
C       3.437609    2.709747   -1.748509
C       4.181218    1.684239   -2.506076
C       4.600242    0.541457   -1.586981
H       5.205234    0.883612   -0.895088
H       5.059073   -0.147403   -2.110831
H       3.805869    0.155424   -1.162586
C       3.254079    1.120400   -3.595271
H       2.477799    0.694005   -3.175677
H       3.740944    0.458275   -4.129066
H       2.951565    1.849282   -4.177079
C       5.411990    2.339163   -3.139154
H       5.990107    2.698055   -2.433200
H       5.127582    3.066275   -3.731249
H       5.906742    1.671050   -3.657516
C       0.214178    6.561441    0.599126
C       0.038229    5.183784    0.767684
N      -0.933350    4.481670    1.479982
C      -2.054436    4.943777    2.133122
H      -2.245177    5.873918    2.148555
C      -2.879848    4.076232    2.749567
H      -3.649527    4.398214    3.203113
C      -2.606501    2.681314    2.724361
H      -3.183492    2.076887    3.177392
C      -1.530004    2.214794    2.059903
H      -1.361800    1.279714    2.038812
C      -0.643640    3.100559    1.391845
C       0.475796    2.929804    0.618674
H       0.883431    2.099705    0.399532
C       0.917086    4.210796    0.204567
C      -0.595306    7.570207    1.209055
C      -1.214953    8.443948    1.748509
C      -1.958562    9.469457    2.506076
C      -2.377586   10.612239    1.586981
H      -2.982578   10.270084    0.895088
H      -2.836417   11.301098    2.110831
H      -1.583214   10.998272    1.162586
C      -1.031424   10.033296    3.595271
H      -0.255143   10.459691    3.175677
H      -1.518288   10.695421    4.129066
H      -0.728909    9.304414    4.177079
C      -3.189334    8.814532    3.139154
H      -3.767451    8.455640    2.433200
H      -2.904926    8.087421    3.731249
H      -3.684086    9.482646    3.657516
C       8.036278    4.592254   -0.599126
C       8.212227    5.969912   -0.767684
N       9.183806    6.672026   -1.479982
C      10.304891    6.209919   -2.133122
H      10.495633    5.279778   -2.148555
C      11.130303    7.077463   -2.749567
H      11.899983    6.755482   -3.203113
C      10.856957    8.472382   -2.724361
H      11.433948    9.076809   -3.177392
C       9.780460    8.938902   -2.059903
H       9.612256    9.873982   -2.038812
C       8.894096    8.053137   -1.391845
C       7.774660    8.223891   -0.618674
H       7.367024    9.053991   -0.399532
C       7.333370    6.942900   -0.204567
C       8.845761    3.583489   -1.209055
C       9.465409    2.709747   -1.748509
C      10.209018    1.684239   -2.506076
C      10.628042    0.541457   -1.586981
H      11.233034    0.883612   -0.895088
H      11.086873   -0.147403   -2.110831
H       9.833669    0.155424   -1.162586
C       9.281879    1.120400   -3.595271
H       8.505599    0.694005   -3.175677
H       9.768744    0.458275   -4.129066
H       8.979365    1.849282   -4.177079
C      11.439790    2.339163   -3.139154
H      12.017907    2.698055   -2.433200
H      11.155382    3.066275   -3.731249
H      11.934542    1.671050   -3.657516
C       6.241978    6.561441    0.599126
C       6.066029    5.183784    0.767684
N       5.094450    4.481670    1.479982
C       3.973364    4.943777    2.133122
H       3.782623    5.873918    2.148555
C       3.147952    4.076232    2.749567
H       2.378273    4.398214    3.203113
C       3.421299    2.681314    2.724361
H       2.844308    2.076887    3.177392
C       4.497796    2.214794    2.059903
H       4.666000    1.279714    2.038812
C       5.384160    3.100559    1.391845
C       6.503596    2.929804    0.618674
H       6.911231    2.099705    0.399532
C       6.944886    4.210796    0.204567
C       5.432494    7.570207    1.209055
C       4.812847    8.443948    1.748509
C       4.069238    9.469457    2.506076
C       3.650214   10.612239    1.586981
H       3.045222   10.270084    0.895088
H       3.191383   11.301098    2.110831
H       4.444586   10.998272    1.162586
C       4.996376   10.033296    3.595271
H       5.772657   10.459691    3.175677
H       4.509512   10.695421    4.129066
H       5.298891    9.304414    4.177079
C       2.838466    8.814532    3.139154
H       2.260349    8.455640    2.433200
H       3.122874    8.087421    3.731249
H       2.343714    9.482646    3.657516
