24

C	-1.2210960000000002	-0.7050000000000002	0.0
H	-2.05248	-1.185	0.0
C	-2.220446049250313e-16	-1.4100000000000001	0.0
H	-2.220446049250313e-16	-2.37	0.0
C	1.2210959999999997	-0.7050000000000002	0.0
H	2.0524799999999996	-1.185	0.0
C	-1.2210960000000002	0.7049999999999997	0.0
H	-2.05248	1.1849999999999996	0.0
C	-2.220446049250313e-16	1.4100000000000001	0.0
H	-2.220446049250313e-16	2.37	0.0
C	1.2210959999999997	0.7049999999999997	0.0
H	2.0524799999999996	1.1849999999999996	0.0
C	-9.033197090335676e-08	-1.4100001564595632	2.0
H	1.0348455936615153e-07	-2.369999820759485	2.0
C	1.2210958193360584	-0.7050000000000006	2.0
H	2.0524802069691197	-1.1850000000000007	2.0
C	1.2210959096680294	0.7050001564595623	2.0
H	2.05248010348456	1.184999820759484	2.0
C	-1.2210959096680294	-0.7050001564595629	2.0
H	-2.0524801034845597	-1.1849998207594845	2.0
C	-1.2210958193360588	0.7050000000000002	2.0
H	-2.0524802069691197	1.1850000000000003	2.0
C	9.033197112540137e-08	1.4100001564595626	2.0
H	-1.0348455914410692e-07	2.3699998207594843	2.0
