24

C	-1.2210960000000002	-0.7050000000000002	0.0
H	-2.05248	-1.185	0.0
C	-2.220446049250313e-16	-1.4100000000000001	0.0
H	-2.220446049250313e-16	-2.37	0.0
C	1.2210959999999997	-0.7050000000000002	0.0
H	2.0524799999999996	-1.185	0.0
C	-1.2210960000000002	0.7049999999999997	0.0
H	-2.05248	1.1849999999999996	0.0
C	-2.220446049250313e-16	1.4100000000000001	0.0
H	-2.220446049250313e-16	2.37	0.0
C	1.2210959999999997	0.7049999999999997	0.0
H	2.0524799999999996	1.1849999999999996	0.0
C	-1.0478343806391268	-0.9434741925281358	4.0
H	-1.7612530339350765	-1.5858394940391942	4.0
C	0.2931554840530404	-1.379188117034666	4.0
H	0.49275070723808934	-2.318209813739119	4.0
C	1.3409898646921672	-0.43571392450653057	4.0
H	2.2540037411731655	-0.732370319699925	4.0
C	-1.3409898646921674	0.43571392450653007	4.0
H	-2.254003741173166	0.7323703196999245	4.0
C	-0.29315548405304087	1.379188117034666	4.0
H	-0.4927507072380898	2.318209813739119	4.0
C	1.0478343806391266	0.9434741925281352	4.0
H	1.761253033935076	1.5858394940391936	4.0
