24

C	-1.2210960000000002	-0.7050000000000002	0.0
H	-2.05248	-1.185	0.0
C	-2.220446049250313e-16	-1.4100000000000001	0.0
H	-2.220446049250313e-16	-2.37	0.0
C	1.2210959999999997	-0.7050000000000002	0.0
H	2.0524799999999996	-1.185	0.0
C	-1.2210960000000002	0.7049999999999997	0.0
H	-2.05248	1.1849999999999996	0.0
C	-2.220446049250313e-16	1.4100000000000001	0.0
H	-2.220446049250313e-16	2.37	0.0
C	1.2210959999999997	0.7049999999999997	0.0
H	2.0524799999999996	1.1849999999999996	0.0
C	-0.5734988128970773	-1.2880992014676678	4.0
H	-0.9639656766481114	-2.1651026129595676	4.0
C	0.8287772057323868	-1.1407139620686761	4.0
H	1.3930510479331608	-1.9173702766686256	4.0
C	1.402276018629464	0.1473852393989914	4.0
H	2.357016724581272	0.24773233629094205	4.0
C	-1.4022760186294643	-0.14738523939899217	4.0
H	-2.357016724581272	-0.24773233629094293	4.0
C	-0.8287772057323872	1.1407139620686757	4.0
H	-1.3930510479331613	1.9173702766686251	4.0
C	0.573498812897077	1.288099201467667	4.0
H	0.9639656766481114	2.1651026129595667	4.0
