24

C	-1.2210960000000002	-0.7050000000000002	0.0
H	-2.05248	-1.185	0.0
C	-2.220446049250313e-16	-1.4100000000000001	0.0
H	-2.220446049250313e-16	-2.37	0.0
C	1.2210959999999997	-0.7050000000000002	0.0
H	2.0524799999999996	-1.185	0.0
C	-1.2210960000000002	0.7049999999999997	0.0
H	-2.05248	1.1849999999999996	0.0
C	-2.220446049250313e-16	1.4100000000000001	0.0
H	-2.220446049250313e-16	2.37	0.0
C	1.2210959999999997	0.7049999999999997	0.0
H	2.0524799999999996	1.1849999999999996	0.0
C	-0.2931556049408133	-1.3791882512941394	4.0
H	-0.49275056874871703	-2.318209659931089	4.0
C	1.0478342039231257	-0.9434741549659902	4.0
H	1.761253236381424	-1.585839537070494	4.0
C	1.3409898088639391	0.4357140963281487	4.0
H	2.254003805130141	0.7323701228605948	4.0
C	-1.340989808863939	-0.43571409632814934	4.0
H	-2.2540038051301408	-0.7323701228605953	4.0
C	-1.047834203923126	0.94347415496599	4.0
H	-1.7612532363814244	1.5858395370704936	4.0
C	0.2931556049408134	1.3791882512941387	4.0
H	0.49275056874871714	2.3182096599310884	4.0
